sim-outorder: SimpleScalar/Alpha Tool Set version 3.0 of August, 2003.
Copyright (c) 1994-2003 by Todd M. Austin, Ph.D. and SimpleScalar, LLC.
All Rights Reserved. This version of SimpleScalar is licensed for academic
non-commercial use.  No portion of this work may be used by any commercial
entity, or for any commercial purpose, without the prior written permission
of SimpleScalar, LLC (info@simplescalar.com).

warning: section `.comment' ignored...
sim: command line: ./simplesim-3.0/sim-outorder -config default.baseline.cfg -fastfwd 1000000000 -max:inst 1000000000 ./CPU2000int/176.gcc/exe/cc1_peak.ev6 

sim: simulation started @ Fri Nov 17 00:42:21 2017, options follow:

sim-outorder: This simulator implements a very detailed out-of-order issue
superscalar processor with a two-level memory system and speculative
execution support.  This simulator is a performance simulator, tracking the
latency of all pipeline operations.

# -config                     # load configuration from a file
# -dumpconfig                 # dump configuration to a file
# -h                    false # print help message    
# -v                    false # verbose operation     
# -d                    false # enable debug message  
# -i                    false # start in Dlite debugger
-seed                       1 # random number generator seed (0 for timer seed)
# -q                    false # initialize and terminate immediately
# -chkpt               <null> # restore EIO trace execution from <fname>
# -redir:sim           <null> # redirect simulator output to file (non-interactive only)
# -redir:prog          <null> # redirect simulated program output to file
-nice                       0 # simulator scheduling priority
-max:inst          1000000000 # maximum number of inst's to execute
-fastfwd           1000000000 # number of insts skipped before timing starts
# -ptrace              <null> # generate pipetrace, i.e., <fname|stdout|stderr> <range>
-fetch:ifqsize            256 # instruction fetch queue size (in insts)
-fetch:mplat                3 # extra branch mis-prediction latency
-fetch:speed                1 # speed of front-end of machine relative to execution core
-bpred                perfect # branch predictor type {nottaken|taken|perfect|bimod|2lev|comb}
-bpred:bimod     2048 # bimodal predictor config (<table size>)
-bpred:2lev      1 1024 8 0 # 2-level predictor config (<l1size> <l2size> <hist_size> <xor>)
-bpred:comb      1024 # combining predictor config (<meta_table_size>)
-bpred:ras                  8 # return address stack size (0 for no return stack)
-bpred:btb       512 4 # BTB config (<num_sets> <associativity>)
# -bpred:spec_update       <null> # speculative predictors update in {ID|WB} (default non-spec)
-decode:width               8 # instruction decode B/W (insts/cycle)
-issue:width                8 # instruction issue B/W (insts/cycle)
-issue:inorder          false # run pipeline with in-order issue
-issue:wrongpath         true # issue instructions down wrong execution paths
-commit:width               8 # instruction commit B/W (insts/cycle)
-ruu:size                 256 # register update unit (RUU) size
-lsq:size                  64 # load/store queue (LSQ) size
-cache:dl1       dl1:64:64:2:l # l1 data cache config, i.e., {<config>|none}
-cache:dl1lat               1 # l1 data cache hit latency (in cycles)
-cache:dl2       ul2:512:64:8:d # l2 data cache config, i.e., {<config>|none}
-cache:dl2lat              10 # l2 data cache hit latency (in cycles)
-cache:il1       il1:64:64:2:l # l1 inst cache config, i.e., {<config>|dl1|dl2|none}
-cache:il1lat               1 # l1 instruction cache hit latency (in cycles)
-cache:il2                dl2 # l2 instruction cache config, i.e., {<config>|dl2|none}
-cache:il2lat               6 # l2 instruction cache hit latency (in cycles)
-cache:flush            false # flush caches on system calls
-cache:icompress        false # convert 64-bit inst addresses to 32-bit inst equivalents
-mem:lat         200 2 # memory access latency (<first_chunk> <inter_chunk>)
-mem:width                  8 # memory access bus width (in bytes)
-tlb:itlb        itlb:32:4096:4:l # instruction TLB config, i.e., {<config>|none}
-tlb:dtlb        dtlb:64:4096:4:l # data TLB config, i.e., {<config>|none}
-tlb:lat                   30 # inst/data TLB miss latency (in cycles)
-res:ialu                   8 # total number of integer ALU's available
-res:imult                  4 # total number of integer multiplier/dividers available
-res:memport                2 # total number of memory system ports available (to CPU)
-res:fpalu                  4 # total number of floating point ALU's available
-res:fpmult                 4 # total number of floating point multiplier/dividers available
# -pcstat              <null> # profile stat(s) against text addr's (mult uses ok)
-bugcompat              false # operate in backward-compatible bugs mode (for testing only)

  Pipetrace range arguments are formatted as follows:

    {{@|#}<start>}:{{@|#|+}<end>}

  Both ends of the range are optional, if neither are specified, the entire
  execution is traced.  Ranges that start with a `@' designate an address
  range to be traced, those that start with an `#' designate a cycle count
  range.  All other range values represent an instruction count range.  The
  second argument, if specified with a `+', indicates a value relative
  to the first argument, e.g., 1000:+100 == 1000:1100.  Program symbols may
  be used in all contexts.

    Examples:   -ptrace FOO.trc #0:#1000
                -ptrace BAR.trc @2000:
                -ptrace BLAH.trc :1500
                -ptrace UXXE.trc :
                -ptrace FOOBAR.trc @main:+278

  Branch predictor configuration examples for 2-level predictor:
    Configurations:   N, M, W, X
      N   # entries in first level (# of shift register(s))
      W   width of shift register(s)
      M   # entries in 2nd level (# of counters, or other FSM)
      X   (yes-1/no-0) xor history and address for 2nd level index
    Sample predictors:
      GAg     : 1, W, 2^W, 0
      GAp     : 1, W, M (M > 2^W), 0
      PAg     : N, W, 2^W, 0
      PAp     : N, W, M (M == 2^(N+W)), 0
      gshare  : 1, W, 2^W, 1
  Predictor `comb' combines a bimodal and a 2-level predictor.

  The cache config parameter <config> has the following format:

    <name>:<nsets>:<bsize>:<assoc>:<repl>

    <name>   - name of the cache being defined
    <nsets>  - number of sets in the cache
    <bsize>  - block size of the cache
    <assoc>  - associativity of the cache
    <repl>   - block replacement strategy, 'l'-LRU, 'f'-FIFO, 'r'-random

    Examples:   -cache:dl1 dl1:4096:32:1:l
                -dtlb dtlb:128:4096:32:r

  Cache levels can be unified by pointing a level of the instruction cache
  hierarchy at the data cache hiearchy using the "dl1" and "dl2" cache
  configuration arguments.  Most sensible combinations are supported, e.g.,

    A unified l2 cache (il2 is pointed at dl2):
      -cache:il1 il1:128:64:1:l -cache:il2 dl2
      -cache:dl1 dl1:256:32:1:l -cache:dl2 ul2:1024:64:2:l

    Or, a fully unified cache hierarchy (il1 pointed at dl1):
      -cache:il1 dl1
      -cache:dl1 ul1:256:32:1:l -cache:dl2 ul2:1024:64:2:l



sim: ** fast forwarding 1000000000 insts **
warning: partially supported sigaction() call...
 __sigismember __sigaddset __sigdelset mem_access_latency dl1_access_fn dl2_access_fn il1_access_fn il2_access_fn itlb_access_fn dtlb_access_fn sim_reg_options sim_check_options sim_aux_config sim_reg_stats sim_init sim_aux_stats sim_uninit ruu_init ruu_dumpent ruu_dump lsq_init lsq_dump rslink_init ruu_release_fu eventq_init eventq_dump eventq_queue_event eventq_next_event readyq_init readyq_dump readyq_enqueue cv_init cv_dump ruu_commit ruu_recover ruu_writeback lsq_refresh ruu_issue rspec_dump tracer_recover tracer_init spec_mem_access mspec_dump simoo_mem_obj ruu_link_idep ruu_install_odep InstSRA InstSRAV InstMULT InstMULTU simoo_reg_obj ruu_dispatchwarning: partially supported sigprocmask() call...
sim: ** starting performance simulation **

sim: ** simulation statistics **
sim_num_insn             1000000000 # total number of instructions committed
sim_num_refs              356512801 # total number of loads and stores committed
sim_num_loads             160763975 # total number of loads committed
sim_num_stores         195748826.0000 # total number of stores committed
sim_num_branches          163066842 # total number of branches committed
sim_elapsed_time               1029 # total simulation time in seconds
sim_inst_rate           971817.2983 # simulation speed (in insts/sec)
sim_total_insn           1000000000 # total number of instructions executed
sim_total_refs            356512801 # total number of loads and stores executed
sim_total_loads           160763975 # total number of loads executed
sim_total_stores       195748826.0000 # total number of stores executed
sim_total_branches        163066842 # total number of branches executed
sim_cycle                1156267088 # total simulation time in cycles
sim_IPC                      0.8649 # instructions per cycle
sim_CPI                      1.1563 # cycles per instruction
sim_exec_BW                  0.8649 # total instructions (mis-spec + committed) per cycle
sim_IPB                      6.1325 # instruction per branch
IFQ_count              222676614793 # cumulative IFQ occupancy
IFQ_fcount                776481439 # cumulative IFQ full count
ifq_occupancy              192.5823 # avg IFQ occupancy (insn's)
ifq_rate                     0.8649 # avg IFQ dispatch rate (insn/cycle)
ifq_latency                222.6766 # avg IFQ occupant latency (cycle's)
ifq_full                     0.6715 # fraction of time (cycle's) IFQ was full
RUU_count              210757324500 # cumulative RUU occupancy
RUU_fcount                     1531 # cumulative RUU full count
ruu_occupancy              182.2739 # avg RUU occupancy (insn's)
ruu_rate                     0.8649 # avg RUU dispatch rate (insn/cycle)
ruu_latency                210.7573 # avg RUU occupant latency (cycle's)
ruu_full                     0.0000 # fraction of time (cycle's) RUU was full
LSQ_count               72484921752 # cumulative LSQ occupancy
LSQ_fcount                972010470 # cumulative LSQ full count
lsq_occupancy               62.6887 # avg LSQ occupancy (insn's)
lsq_rate                     0.8649 # avg LSQ dispatch rate (insn/cycle)
lsq_latency                 72.4849 # avg LSQ occupant latency (cycle's)
lsq_full                     0.8406 # fraction of time (cycle's) LSQ was full
sim_slip               284598726507 # total number of slip cycles
avg_sim_slip               284.5987 # the average slip between issue and retirement
il1.accesses             2797922151 # total number of accesses
il1.hits                 2797540622 # total number of hits
il1.misses                   381529 # total number of misses
il1.replacements             381401 # total number of replacements
il1.writebacks                    0 # total number of writebacks
il1.invalidations                 0 # total number of invalidations
il1.miss_rate                0.0001 # miss rate (i.e., misses/ref)
il1.repl_rate                0.0001 # replacement rate (i.e., repls/ref)
il1.wb_rate                  0.0000 # writeback rate (i.e., wrbks/ref)
il1.inv_rate                 0.0000 # invalidation rate (i.e., invs/ref)
dl1.accesses              355340738 # total number of accesses
dl1.hits                  310966567 # total number of hits
dl1.misses                 44374171 # total number of misses
dl1.replacements           44374043 # total number of replacements
dl1.writebacks             24410588 # total number of writebacks
dl1.invalidations                 0 # total number of invalidations
dl1.miss_rate                0.1249 # miss rate (i.e., misses/ref)
dl1.repl_rate                0.1249 # replacement rate (i.e., repls/ref)
dl1.wb_rate                  0.0687 # writeback rate (i.e., wrbks/ref)
dl1.inv_rate                 0.0000 # invalidation rate (i.e., invs/ref)
ul2.accesses               69166288 # total number of accesses
ul2.hits                   48073507 # total number of hits
ul2.misses                 21092781 # total number of misses
ul2.replacements           21088685 # total number of replacements
ul2.writebacks              2968805 # total number of writebacks
ul2.invalidations                 0 # total number of invalidations
ul2.miss_rate                0.3050 # miss rate (i.e., misses/ref)
ul2.repl_rate                0.3049 # replacement rate (i.e., repls/ref)
ul2.wb_rate                  0.0429 # writeback rate (i.e., wrbks/ref)
ul2.inv_rate                 0.0000 # invalidation rate (i.e., invs/ref)
itlb.accesses            2797922151 # total number of accesses
itlb.hits                2797922094 # total number of hits
itlb.misses                      57 # total number of misses
itlb.replacements                 0 # total number of replacements
itlb.writebacks                   0 # total number of writebacks
itlb.invalidations                0 # total number of invalidations
itlb.miss_rate               0.0000 # miss rate (i.e., misses/ref)
itlb.repl_rate               0.0000 # replacement rate (i.e., repls/ref)
itlb.wb_rate                 0.0000 # writeback rate (i.e., wrbks/ref)
itlb.inv_rate                0.0000 # invalidation rate (i.e., invs/ref)
dtlb.accesses             356512768 # total number of accesses
dtlb.hits                 356496534 # total number of hits
dtlb.misses                   16234 # total number of misses
dtlb.replacements             15978 # total number of replacements
dtlb.writebacks                   0 # total number of writebacks
dtlb.invalidations                0 # total number of invalidations
dtlb.miss_rate               0.0000 # miss rate (i.e., misses/ref)
dtlb.repl_rate               0.0000 # replacement rate (i.e., repls/ref)
dtlb.wb_rate                 0.0000 # writeback rate (i.e., wrbks/ref)
dtlb.inv_rate                0.0000 # invalidation rate (i.e., invs/ref)
sim_invalid_addrs                 0 # total non-speculative bogus addresses seen (debug var)
ld_text_base           0x0120000000 # program text (code) segment base
ld_text_size                1810432 # program text (code) size in bytes
ld_data_base           0x0140000000 # program initialized data segment base
ld_data_size                 295136 # program init'ed `.data' and uninit'ed `.bss' size in bytes
ld_stack_base          0x011ff9b000 # program stack segment base (highest address in stack)
ld_stack_size                 16384 # program initial stack size
ld_prog_entry          0x012002e180 # program entry point (initial PC)
ld_environ_base        0x011ff97000 # program environment base address address
ld_target_big_endian              0 # target executable endian-ness, non-zero if big endian
mem.page_count                 2650 # total number of pages allocated
mem.page_mem                 21200k # total size of memory pages allocated
mem.ptab_misses             1690577 # total first level page table misses
mem.ptab_accesses       19644449838 # total page table accesses
mem.ptab_miss_rate           0.0001 # first level page table miss rate

